LAMMPS (3 Mar 2020)
shell rm -rf dump
shell mkdir dump

units real
atom_style full
read_data SPCE.data
  orthogonal box = (0 0 0) to (3.1 3.1 3.1)
  reading atoms ...
  3 atoms
  scanning bonds ...
  scanning angles ...
  reading bonds ...
  2 bonds
  reading angles ...
  1 angles
include SPCE.forcefield
# Original model from Berendsen et al, J Phys Chem 91:6269 (1987)
# Charges and geometry are specified in the "data." file.

mass 1 1.00794 # H
mass 2 15.9994 # O

pair_style lj/cut/coul/long 10.0
pair_modify tail yes
kspace_style pppm 1.0e-5

pair_coeff 1 1 0.00000 0.000
pair_coeff 1 2 0.00000 0.000
pair_coeff 2 2 0.15535 3.166

bond_style harmonic
bond_coeff 1 0.0 1.0

angle_style harmonic
angle_coeff 1 0.0 109.47

replicate 10 10 10
  orthogonal box = (0 0 0) to (31 31 31)
  3000 atoms
  2000 bonds
  1000 angles
  replicate CPU = 0.011086 secs

variable Nrun equal 1000
variable Nf equal 1000/10
variable Ne equal 10
variable Nr equal 100/10
variable Ndump equal 1000/2
variable Nr_rdf equal 0.5*1000/10

variable watMoleMass equal 18.0153 # /(g/mol)
variable nAvog equal 6.0221415e23 # Avogadro's number
variable watMoleculeMass equal (18.0153/6.0221415e+23)
variable A3_in_cm3 equal 1e-24 # Angstrom^3 in cm^3
variable nAtoms equal atoms
variable nMolecules equal v_nAtoms/3

variable Text equal 298.0
variable Pext equal 1.0

group hydrogen type 1
2000 atoms in group hydrogen
group oxygen type 2
1000 atoms in group oxygen

velocity all create 298 1234

neighbor 2.0 bin
neigh_modify every 1 delay 0 check yes

timestep 1.0

fix constrain all shake 1.0e-4 100 0 b 1 a 1
  find clusters CPU = 0.00383194 secs
# fix removeMomentum all momentum 1 linear 1 1 1

group particle id 1 2 3
3 atoms in group particle

variable xcmx equal xcm(particle,x)
variable xcmy equal xcm(particle,y)
variable xcmz equal xcm(particle,z)
variable vcmx equal vcm(particle,x)
variable vcmy equal vcm(particle,y)
variable vcmz equal vcm(particle,z)

fix				 NVT all nvt temp  300 300 100
thermo           100
thermo_style     custom step temp etotal ke pe  press  pxx pyy pzz   lx ly lz
dump             1 all custom 1000  ./dump/nvt.lammpstrj id type x y z vx vy vz fx fy fz

fix              velpos all ave/time 10 1 10  v_vcmx v_vcmy v_vcmz  v_xcmx v_xcmy v_xcmz file ./dump/velocity_position_nvt.out

run				 1000000
PPPM initialization ...
  G vector (1/distance) = 0.305114
  grid = 27 27 27
  stencil order = 5
  estimated absolute RMS force accuracy = 0.00306414
  estimated relative force accuracy = 9.22755e-06
  3d grid and FFT values/proc = 3920 756
  update every 1 steps, delay 0 steps, check yes
Step Temp TotEng KinEng PotEng Press Pxx Pyy Pzz Lx Ly Lz
0    447.07454    2215.3382    2663.9559   -448.61766    22294.726    24095.446     68782.26   -25993.529           31           31           31
Averages over the last 5001 of 10001 rows, steps 500000 to 1000000:
Temp TotEng KinEng PotEng Press Pxx Pyy Pzz Lx Ly Lz
299.932 -9370.63 1787.19 -11157.8 136.414 143.461 141.551 124.23 31 31 31
Loop time of 4288.41 on 32 procs for 1000000 steps with 3000 atoms

unfix   	     NVT
undump           1
unfix            velpos
write_restart    ./dump/nvt.nvt
PPPM initialization ...
  G vector (1/distance) = 0.305114
  grid = 27 27 27
  stencil order = 5
  estimated absolute RMS force accuracy = 0.00306414
  estimated relative force accuracy = 9.22755e-06
  3d grid and FFT values/proc = 3920 756
write_data       ./dump/nvt.data
PPPM initialization ...
  G vector (1/distance) = 0.305114
  grid = 27 27 27
  stencil order = 5
  estimated absolute RMS force accuracy = 0.00306414
  estimated relative force accuracy = 9.22755e-06
  3d grid and FFT values/proc = 3920 756

fix				 NPT all npt temp  300 300 100 iso 1 1 1000
thermo           100
thermo_style     custom step temp etotal ke pe  press  pxx pyy pzz   lx ly lz
dump             2 all custom 1000  ./dump/npt.lammpstrj id type x y z vx vy vz fx fy fz

fix              velpos all ave/time 10 1 10  v_vcmx v_vcmy v_vcmz  v_xcmx v_xcmy v_xcmz file ./dump/velocity_position_npt.out

run				 1000000
PPPM initialization ...
  G vector (1/distance) = 0.305114
  grid = 27 27 27
  stencil order = 5
  estimated absolute RMS force accuracy = 0.00306414
  estimated relative force accuracy = 9.22755e-06
  3d grid and FFT values/proc = 3920 756
Step Temp TotEng KinEng PotEng Press Pxx Pyy Pzz Lx Ly Lz
1000000    299.23235   -9352.0395    1783.0176   -11135.057    307.40527    50.789615   -127.81844    999.24465           31           31           31
Averages over the last 5001 of 10001 rows, steps 1500000 to 2000000:
Temp TotEng KinEng PotEng Press Pxx Pyy Pzz Lx Ly Lz
299.94 -9364.14 1787.24 -11151.4 -2.3346 -15.9808 12.4588 -3.48185 31.0699 31.0699 31.0699
Loop time of 5260.99 on 32 procs for 1000000 steps with 3000 atoms

unfix            velpos
unfix   	     NPT

write_restart    ./dump/npt.rst
PPPM initialization ...
  G vector (1/distance) = 0.305176
  grid = 27 27 27
  stencil order = 5
  estimated absolute RMS force accuracy = 0.00305634
  estimated relative force accuracy = 9.20408e-06
  3d grid and FFT values/proc = 3920 756
write_data       ./dump/npt.data
PPPM initialization ...
  G vector (1/distance) = 0.305176
  grid = 27 27 27
  stencil order = 5
  estimated absolute RMS force accuracy = 0.00305634
  estimated relative force accuracy = 9.20408e-06
  3d grid and FFT values/proc = 3920 756

fix              NVE all nve

thermo           1000
thermo_style     custom step temp etotal ke pe  press  pxx pyy pzz   lx ly lz
dump             1 all custom 1000  ./dump/nve.lammpstrj id type x y z vx vy vz fx fy fz

fix              velpos all ave/time 10 1 10  v_vcmx v_vcmy v_vcmz  v_xcmx v_xcmy v_xcmz file ./dump/velocity_position_nve.out

run				 1000000
PPPM initialization ...
  G vector (1/distance) = 0.305176
  grid = 27 27 27
  stencil order = 5
  estimated absolute RMS force accuracy = 0.00305634
  estimated relative force accuracy = 9.20408e-06
  3d grid and FFT values/proc = 3920 756
Step Temp TotEng KinEng PotEng Press Pxx Pyy Pzz Lx Ly Lz
2000000    316.21422   -9296.5522    1884.2065   -11180.759    80.258705   -249.76899    365.40898    125.13612    30.973532    30.973532    30.973532
Averages over the last 236 of 471 rows, steps 2235000 to 2470000:
Temp TotEng KinEng PotEng Press Pxx Pyy Pzz Lx Ly Lz
304.508 -9295.37 1814.46 -11109.8 282.246 301.223 319.381 226.135 30.9735 30.9735 30.9735
